[General]
network = SourceSink
#cpu-time-limit = 60s
#debug-on-errors = true
sim-time-limit = 500000s
**.result-recording-modes="all"